ipss.tutorial/testData/psse/Texas2k/Texas2k_series24_case1_2016summerPeak_v36.RAW
@!IC,SBASE,REV,XFRRAT,NXFRAT,BASFRQ
0,  100.00, 36,     0,     1, 60.00     / PSS(R)E-36.2    MON, MAR 31 2025  20:22
TEXAS2K_SERIES24_CASE1_2016SUMMERPEAK
THIS IS A SYNTHETIC POWER SYSTEM MODEL THAT DOES NOT REPRESE
GENERAL, THRSHZ=0.0001, PQBRAK=0.7, BLOWUP=5.0, MaxIsolLvls=4, CAMaxReptSln=20, ChkDupCntLbl=0
GAUSS, ITMX=100, ACCP=1.6, ACCQ=1.6, ACCM=1.0, TOL=0.0001
NEWTON, ITMXN=20, ACCN=1.0, TOLN=0.1, VCTOLQ=0.1, VCTOLV=0.00001, DVLIM=0.99, NDVFCT=0.99
ADJUST, ADJTHR=0.005, ACCTAP=1.0, TAPLIM=0.05, SWVBND=100.0, MXTPSS=99, MXSWIM=10
TYSL, ITMXTY=20, ACCTY=1.0, TOLTY=0.00001
SOLVER, FNSL, ACTAPS=0, AREAIN=0, PHSHFT=0, DCTAPS=1, SWSHNT=0, FLATST=0, VARLIM=-1, NONDIV=0
RATING, 1, "RATE1 ", "RATING SET 1                    "
RATING, 2, "RATE2 ", "RATING SET 2                    "
RATING, 3, "RATE3 ", "RATING SET 3                    "
RATING, 4, "RATE4 ", "RATING SET 4                    "
RATING, 5, "RATE5 ", "RATING SET 5                    "
RATING, 6, "RATE6 ", "RATING SET 6                    "
RATING, 7, "RATE7 ", "RATING SET 7                    "
RATING, 8, "RATE8 ", "RATING SET 8                    "
RATING, 9, "RATE9 ", "RATING SET 9                    "
RATING,10, "RATE10", "RATING SET 10                   "
RATING,11, "RATE11", "RATING SET 11                   "
RATING,12, "RATE12", "RATING SET 12                   "
SWDRATNAM,  1, "RATE1 ", 0, "MVA", "SWD RATING SET 1                "
SWDRATNAM,  2, "RATE2 ", 0, "MVA", "SWD RATING SET 2                "
SWDRATNAM,  3, "RATE3 ", 0, "MVA", "SWD RATING SET 3                "
SWDRATNAM,  4, "RATE4 ", 0, "MVA", "SWD RATING SET 4                "
SWDRATNAM,  5, "RATE5 ", 0, "MVA", "SWD RATING SET 5                "
SWDRATNAM,  6, "RATE6 ", 0, "MVA", "SWD RATING SET 6                "
SWDRATNAM,  7, "RATE7 ", 0, "MVA", "SWD RATING SET 7                "
SWDRATNAM,  8, "RATE8 ", 0, "MVA", "SWD RATING SET 8                "
SWDRATNAM,  9, "RATE9 ", 0, "MVA", "SWD RATING SET 9                "
SWDRATNAM, 10, "RATE10", 0, "MVA", "SWD RATING SET 10               "
SWDRATNAM, 11, "RATE11", 0, "MVA", "SWD RATING SET 11               "
SWDRATNAM, 12, "RATE12", 0, "MVA", "SWD RATING SET 12               "
0 / END OF SYSTEM-WIDE DATA, BEGIN BUS DATA
@!   I,'NAME        ', BASKV, IDE,AREA,ZONE,OWNER, VM,        VA,    NVHI,   NVLO,   EVHI,   EVLO
  1001,'ODESSA 2 0  ', 115.0000,1,   1,   9,   1,0.97808, -26.5095,1.10000,0.90000,1.10000,0.90000
  1002,'PRESIDIO 2 0', 115.0000,1,   1,   9,   1,1.01043, -21.2203,1.10000,0.90000,1.10000,0.90000
  1003,'O DONNELL ~1', 115.0000,1,   1,   9,   1,1.00801, -24.3566,1.10000,0.90000,1.10000,0.90000
  1004,'O DONNELL ~2', 230.0000,2,   1,   9,   1,1.01000, -25.9514,1.10000,0.90000,1.10000,0.90000
  1005,'BIG SPRING~8', 115.0000,1,   1,   9,   1,1.00863, -20.3067,1.10000,0.90000,1.10000,0.90000
  1006,'BIG SPRING~9',  13.8000,2,   1,   9,   1,1.00000, -18.1346,1.10000,0.90000,1.10000,0.90000
  1007,'VAN HORN 0  ', 115.0000,1,   1,   9,   1,1.01958, -21.6933,1.10000,0.90000,1.10000,0.90000
  1008,'IRAAN 2 0   ', 115.0000,1,   1,   9,   1,1.01070, -11.1157,1.10000,0.90000,1.10000,0.90000
  1009,'IRAAN 2 1   ',  13.8000,2,   1,   9,   1,1.00000,  -7.7599,1.10000,0.90000,1.10000,0.90000
  1010,'PRESIDIO 1 0', 115.0000,1,   1,   9,   1,1.01730, -19.8829,1.10000,0.90000,1.10000,0.90000
  1011,'PRESIDIO 1 1',  22.0000,2,   1,   9,   1,1.01751, -18.0859,1.10000,0.90000,1.10000,0.90000
  1012,'SANDERSON 0 ', 115.0000,1,   1,   9,   1,1.00615, -27.0522,1.10000,0.90000,1.10000,0.90000
  1013,'MONAHANS 2 0', 115.0000,1,   1,   9,   1,1.00395, -18.8227,1.10000,0.90000,1.10000,0.90000
  1014,'GRANDFALLS 0', 115.0000,1,   1,   9,   1,1.00643, -15.0230,1.10000,0.90000,1.10000,0.90000
  1015,'MARFA 0     ', 115.0000,1,   1,   9,   1,1.02006, -21.3665,1.10000,0.90000,1.10000,0.90000
  1016,'GARDEN CIT~1', 115.0000,1,   1,   9,   1,1.01833, -19.3594,1.10000,0.90000,1.10000,0.90000
  1017,'ODESSA 4 0  ', 115.0000,1,   1,   9,   1,0.98080, -25.1602,1.10000,0.90000,1.10000,0.90000
  1018,'NOTREES 0   ', 115.0000,1,   1,   9,   1,0.99067, -23.9057,1.10000,0.90000,1.10000,0.90000
  1019,'MIDLAND 4 0 ', 115.0000,1,   1,   9,   1,0.99948, -26.1188,1.10000,0.90000,1.10000,0.90000
  1020,'BIG SPRING~1', 115.0000,1,   1,   9,   1,1.02954, -19.5340,1.10000,0.90000,1.10000,0.90000
  1021,'BIG SPRING~2',  13.8000,2,   1,   9,   1,1.00000, -12.9500,1.10000,0.90000,1.10000,0.90000
  1022,'O DONNELL ~3', 115.0000,1,   1,   9,   1,1.01100, -23.6427,1.10000,0.90000,1.10000,0.90000
  1023,'O DONNELL ~4',  13.8000,2,   1,   9,   1,1.01000, -14.7295,1.10000,0.90000,1.10000,0.90000
  1024,'ODESSA 6 0  ', 115.0000,1,   1,   9,   1,0.99422, -22.8528,1.10000,0.90000,1.10000,0.90000
  1025,'BIG SPRIN~14', 115.0000,1,   1,   9,   1,1.02301, -18.4567,1.10000,0.90000,1.10000,0.90000
  1026,'BIG SPRIN~15',  13.8000,2,   1,   9,   1,1.00000,  -8.9820,1.10000,0.90000,1.10000,0.90000
  1027,'MIDLAND 2 0 ', 115.0000,1,   1,   9,   1,1.00903, -29.9371,1.10000,0.90000,1.10000,0.90000
  1028,'COAHOMA 0   ', 115.0000,1,   1,   9,   1,1.01373, -25.5394,1.10000,0.90000,1.10000,0.90000
  1029,'MIDLAND 3 0 ', 115.0000,1,   1,   9,   1,1.00487, -28.9228,1.10000,0.90000,1.10000,0.90000
  1030,'ALPINE 0    ', 115.0000,1,   1,   9,   1,1.00364, -16.2876,1.10000,0.90000,1.10000,0.90000
  1031,'FORT DAVIS 0', 115.0000,1,   1,   9,   1,1.01113, -20.9805,1.10000,0.90000,1.10000,0.90000
  1032,'MCCAMEY 1 0 ', 115.0000,1,   1,   9,   1,0.98884, -14.9491,1.10000,0.90000,1.10000,0.90000
  1033,'MCCAMEY 1 1 ', 230.0000,2,   1,   9,   1,1.00000, -19.6093,1.10000,0.90000,1.10000,0.90000
  1034,'BIG SPRING~6', 115.0000,1,   1,   9,   1,1.00577, -18.4006,1.10000,0.90000,1.10000,0.90000
  1035,'BIG SPRING~7',  13.8000,2,   1,   9,   1,1.00000, -15.1111,1.10000,0.90000,1.10000,0.90000
  1036,'CRANE 0     ', 115.0000,1,   1,   9,   1,0.99170, -15.4868,1.10000,0.90000,1.10000,0.90000
  1037,'ODESSA 5 0  ', 115.0000,1,   1,   9,   1,0.97326, -26.2896,1.10000,0.90000,1.10000,0.90000
  1038,'FORT STOCK~1', 115.0000,1,   1,   9,   1,1.00496, -10.2640,1.10000,0.90000,1.10000,0.90000
  1039,'FORT STOCK~2',  22.0000,2,   1,   9,   1,1.00000,  -4.8336,1.10000,0.90000,1.10000,0.90000
  1040,'ANDREWS 0   ', 115.0000,1,   1,   9,   1,0.99394, -24.1681,1.10000,0.90000,1.10000,0.90000
  1041,'FORSAN 0    ', 115.0000,1,   1,   9,   1,1.00369, -19.2995,1.10000,0.90000,1.10000,0.90000
  1042,'FORSAN 1    ',  13.8000,1,   1,   9,   1,1.00369, -19.2995,1.10000,0.90000,1.10000,0.90000
  1043,'FORSAN 2    ',  13.8000,2,   1,   9,   1,1.00000, -16.0598,1.10000,0.90000,1.10000,0.90000
  1044,'BIG LAKE 0  ', 115.0000,1,   1,   9,   1,1.01607, -30.1428,1.10000,0.90000,1.10000,0.90000
  1045,'MIDLAND 5 0 ', 115.0000,1,   1,   9,   1,0.97752, -28.2923,1.10000,0.90000,1.10000,0.90000
  1046,'OZONA 0     ', 115.0000,1,   1,   9,   1,1.01640, -25.0800,1.10000,0.90000,1.10000,0.90000
  1047,'MONAHANS 1 0', 115.0000,1,   1,   9,   1,1.00332, -16.7365,1.10000,0.90000,1.10000,0.90000
  1048,'MONAHANS 1 1',  18.0000,1,   1,   9,   1,1.00332, -16.7365,1.10000,0.90000,1.10000,0.90000
  1049,'MONAHANS 1 2',  18.0000,1,   1,   9,   1,1.00332, -16.7365,1.10000,0.90000,1.10000,0.90000
  1050,'MONAHANS 1 3',  18.0000,2,   1,   9,   1,1.00000, -11.6507,1.10000,0.90000,1.10000,0.90000
  1051,'MONAHANS 1 4',  18.0000,2,   1,   9,   1,1.00000, -10.1677,1.10000,0.90000,1.10000,0.90000
  1052,'MONAHANS 1 5',  18.0000,2,   1,   9,   1,1.00000, -12.5058,1.10000,0.90000,1.10000,0.90000
  1053,'MONAHANS 1 6', 230.0000,1,   1,   9,   1,1.01152, -20.6683,1.10000,0.90000,1.10000,0.90000
  1054,'STANTON 0   ', 115.0000,1,   1,   9,   1,1.00921, -27.1848,1.10000,0.90000,1.10000,0.90000
  1055,'ODONNELL 0  ', 115.0000,1,   1,   9,   1,1.00125, -25.1655,1.10000,0.90000,1.10000,0.90000
  1056,'LENORAH 0   ', 115.0000,1,   1,   9,   1,1.02523, -26.1573,1.10000,0.90000,1.10000,0.90000
  1057,'LENORAH 1   ',  18.0000,1,   1,   9,   1,1.02523, -26.1573,1.10000,0.90000,1.10000,0.90000
  1058,'IRAAN 3 0   ', 115.0000,1,   1,   9,   1,1.01324, -13.6778,1.10000,0.90000,1.10000,0.90000
  1059,'IRAAN 3 1   ',  22.0000,1,   1,   9,   1,1.01324, -13.6778,1.10000,0.90000,1.10000,0.90000
  1060,'IRAAN 3 2   ',  22.0000,1,   1,   9,   1,1.01324, -13.6778,1.10000,0.90000,1.10000,0.90000
  1061,'BIG SPRIN~10', 115.0000,1,   1,   9,   1,1.00966, -21.4640,1.10000,0.90000,1.10000,0.90000
  1062,'BIG SPRIN~11',  13.8000,1,   1,   9,   1,1.00966, -21.4640,1.10000,0.90000,1.10000,0.90000
  1063,'BIG SPRIN~12',  13.8000,1,   1,   9,   1,1.00966, -21.4640,1.10000,0.90000,1.10000,0.90000
  1064,'ODESSA 3 0  ', 115.0000,1,   1,   9,   1,0.97113, -27.9526,1.10000,0.90000,1.10000,0.90000
  1065,'BIG SPRING~4', 115.0000,1,   1,   9,   1,1.00630, -19.1507,1.10000,0.90000,1.10000,0.90000
  1066,'BIG SPRING~5',  13.8000,2,   1,   9,   1,1.00000, -11.6277,1.10000,0.90000,1.10000,0.90000
  1067,'BIG SPRIN~13', 115.0000,1,   1,   9,   1,1.00068, -19.8551,1.10000,0.90000,1.10000,0.90000
  1068,'MIDLAND 1 0 ', 115.0000,1,   1,   9,   1,0.98710, -20.0084,1.10000,0.90000,1.10000,0.90000
  1069,'IRAAN 1 0   ', 115.0000,1,   1,   9,   1,1.01516, -11.2141,1.10000,0.90000,1.10000,0.90000
  1070,'IRAAN 1 1   ',  13.8000,2,   1,   9,   1,1.04000,  -6.6952,1.10000,0.90000,1.10000,0.90000
  1071,'ODESSA 1 0  ', 115.0000,1,   1,   9,   1,0.98534, -25.2281,1.10000,0.90000,1.10000,0.90000
  1072,'ODESSA 1 1  ',  18.0000,2,   1,   9,   1,1.01000, -15.8275,1.10000,0.90000,1.10000,0.90000
  1073,'ODESSA 1 2  ',  18.0000,2,   1,   9,   1,1.01000,  -9.3666,1.10000,0.90000,1.10000,0.90000
  1074,'ODESSA 1 3  ',  18.0000,2,   1,   9,   1,1.01000, -11.4336,1.10000,0.90000,1.10000,0.90000
  1075,'ODESSA 1 4  ',  18.0000,2,   1,   9,   1,1.01000, -14.2132,1.10000,0.90000,1.10000,0.90000
  1076,'ODESSA 1 5  ',  18.0000,1,   1,   9,   1,0.98534, -25.2281,1.10000,0.90000,1.10000,0.90000
  1077,'ODESSA 1 6  ',  18.0000,1,   1,   9,   1,0.98534, -25.2281,1.10000,0.90000,1.10000,0.90000
  1078,'ODESSA 1 7  ',  18.0000,2,   1,   9,   1,1.01000, -14.7338,1.10000,0.90000,1.10000,0.90000
  1079,'ODESSA 1 8  ', 500.0000,2,   1,   9,   1,1.01000, -42.7213,1.10000,0.90000,1.10000,0.90000
  1080,'ODESSA 1 9  ',  18.0000,2,   1,   9,   1,1.01000, -14.1583,1.10000,0.90000,1.10000,0.90000
  1081,'ODESSA 1 10 ', 230.0000,1,   1,   9,   1,1.01276, -22.0065,1.10000,0.90000,1.10000,0.90000
  1082,'FORT STOCK~3', 115.0000,2,   1,   9,   1,1.00000,  -8.3022,1.10000,0.90000,1.10000,0.90000
  1083,'FORT STOCK~4', 115.0000,1,   1,   9,   1,1.00836, -12.6430,1.10000,0.90000,1.10000,0.90000
  1084,'BIG SPRING~3', 115.0000,2,   1,   9,   1,1.04000, -20.7743,1.10000,0.90000,1.10000,0.90000
  1085,'KERMIT 0    ', 115.0000,1,   1,   9,   1,1.00752, -18.7977,1.10000,0.90000,1.10000,0.90000
  1086,'PECOS 0     ', 115.0000,1,   1,   9,   1,1.01367, -21.0173,1.10000,0.90000,1.10000,0.90000
  1087,'SHEFFIELD 0 ', 115.0000,1,   1,   9,   1,1.01639, -18.5065,1.10000,0.90000,1.10000,0.90000
  1088,'MCCAMEY 2 0 ', 115.0000,2,   1,   9,   1,1.00000, -15.1225,1.10000,0.90000,1.10000,0.90000
  1089,'LAMESA 0    ', 115.0000,1,   1,   9,   1,0.98307, -27.5581,1.10000,0.90000,1.10000,0.90000
  1090,'GOLDSMITH 0 ', 115.0000,2,   1,   9,   1,1.02000, -19.7632,1.10000,0.90000,1.10000,0.90000
  1091,'RALLS 2 0   ', 161.0000,1,   1,   9,   1,1.02422, -40.4355,1.10000,0.90000,1.10000,0.90000
  2001,'PARIS 3 0   ', 161.0000,1,   2,  11,   1,1.00365, -61.3302,1.10000,0.90000,1.10000,0.90000
  2002,'SAVOY 0     ', 500.0000,1,   2,  11,   1,1.01632, -62.4460,1.10000,0.90000,1.10000,0.90000
  2003,'SAVOY 1     ', 161.0000,1,   2,  11,   1,1.01530, -64.6447,1.10000,0.90000,1.10000,0.90000
  2004,'SAVOY 2     ',  13.8000,1,   2,  11,   1,1.01632, -62.4460,1.10000,0.90000,1.10000,0.90000
  2005,'SAVOY 3     ',  13.8000,1,   2,  11,   1,1.01632, -62.4460,1.10000,0.90000,1.10000,0.90000
  2006,'SAVOY 4     ',  13.8000,1,   2,  11,   1,1.01632, -62.4460,1.10000,0.90000,1.10000,0.90000
  2007,'HONEY GROV~1', 161.0000,1,   2,  11,   1,1.00484, -61.0715,1.10000,0.90000,1.10000,0.90000
  2008,'MEMPHIS 0   ', 161.0000,1,   2,  10,   1,1.00430, -41.4266,1.10000,0.90000,1.10000,0.90000
  2009,'IOWA PARK 0 ', 161.0000,1,   2,  11,   1,1.02471, -50.7992,1.10000,0.90000,1.10000,0.90000
  2010,'VERNON 2 0  ', 161.0000,1,   2,  10,   1,1.02946, -43.1091,1.10000,0.90000,1.10000,0.90000
  2011,'PANHANDLE ~2', 500.0000,1,   2,  10,   1,1.02793, -40.0532,1.10000,0.90000,1.10000,0.90000
  2012,'PANHANDLE ~3', 161.0000,1,   2,  10,   1,1.01073, -37.9682,1.10000,0.90000,1.10000,0.90000
  2013,'PANHANDLE ~4',  18.0000,2,   2,  10,   1,1.00000, -37.6002,1.10000,0.90000,1.10000,0.90000
  2014,'CHILDRESS 0 ', 161.0000,1,   2,  10,   1,1.00579, -42.2530,1.10000,0.90000,1.10000,0.90000
  2015,'FORESTBURG 0', 161.0000,1,   2,  11,   1,1.01543, -64.7030,1.10000,0.90000,1.10000,0.90000
  2016,'SHERMAN 3 0 ', 161.0000,1,   2,  11,   1,1.01603, -70.4779,1.10000,0.90000,1.10000,0.90000
  2017,'PANHANDLE ~7', 500.0000,1,   2,  10,   1,1.02989, -41.2829,1.10000,0.90000,1.10000,0.90000
  2018,'PANHANDLE ~8', 161.0000,1,   2,  10,   1,1.02103, -40.2400,1.10000,0.90000,1.10000,0.90000
  2019,'PANHANDLE ~9',  20.0000,1,   2,  10,   1,1.02989, -41.2829,1.10000,0.90000,1.10000,0.90000
  2020,'WICHITA F~12', 161.0000,1,   2,  11,   1,1.00187, -50.4712,1.10000,0.90000,1.10000,0.90000
  2021,'PARIS 2 0   ', 500.0000,1,   2,  11,   1,1.01499, -58.1405,1.10000,0.90000,1.10000,0.90000
  2022,'PARIS 2 1   ', 161.0000,1,   2,  11,   1,1.01166, -60.0094,1.10000,0.90000,1.10000,0.90000
  2023,'PARIS 2 2   ',  13.8000,2,   2,  11,   1,1.02000, -56.5740,1.10000,0.90000,1.10000,0.90000
  2024,'PARIS 2 3   ',  13.8000,2,   2,  11,   1,1.02000, -55.9075,1.10000,0.90000,1.10000,0.90000
  2025,'WICHITA F~10', 161.0000,1,   2,  11,   1,0.99999, -49.7773,1.10000,0.90000,1.10000,0.90000
  2026,'WHEELER 0   ', 161.0000,1,   2,  10,   1,1.01454, -39.0691,1.10000,0.90000,1.10000,0.90000
  2027,'DEPORT 0    ', 161.0000,1,   2,  11,   1,1.00433, -61.7383,1.10000,0.90000,1.10000,0.90000
  2028,'WICHITA FA~9', 161.0000,1,   2,  11,   1,1.00286, -52.3994,1.10000,0.90000,1.10000,0.90000
  2029,'SILVERTON 0 ', 161.0000,1,   2,  10,   1,1.01395, -41.8067,1.10000,0.90000,1.10000,0.90000
  2030,'BONHAM 0    ', 161.0000,1,   2,  11,   1,0.99304, -65.0609,1.10000,0.90000,1.10000,0.90000
  2031,'MATADOR 0   ', 161.0000,1,   2,  10,   1,1.02516, -37.0082,1.10000,0.90000,1.10000,0.90000
  2032,'ARTHUR CIT~1', 161.0000,1,   2,  11,   1,1.00660, -60.5010,1.10000,0.90000,1.10000,0.90000
  2033,'LEONARD 0   ', 161.0000,1,   2,  11,   1,0.99649, -66.4099,1.10000,0.90000,1.10000,0.90000
  2034,'GORDONVILL~1', 161.0000,1,   2,  11,   1,1.01353, -69.8828,1.10000,0.90000,1.10000,0.90000
  2035,'KNOX CITY 0 ', 161.0000,1,   2,  10,   1,1.02445, -36.9209,1.10000,0.90000,1.10000,0.90000
  2036,'WICHITA F~13', 161.0000,1,   2,  11,   1,1.00478, -50.1640,1.10000,0.90000,1.10000,0.90000
  2037,'LINDSAY 0   ', 161.0000,1,   2,  11,   1,1.02607, -64.9559,1.10000,0.90000,1.10000,0.90000
  2038,'ECTOR 0     ', 161.0000,1,   2,  11,   1,1.01235, -65.1074,1.10000,0.90000,1.10000,0.90000
  2039,'SUNSET 0    ', 161.0000,1,   2,  11,   1,1.00029, -62.3230,1.10000,0.90000,1.10000,0.90000
  2040,'CLARKSVILL~1', 161.0000,1,   2,  11,   1,1.00919, -60.6794,1.10000,0.90000,1.10000,0.90000
  2041,'PANHANDLE ~5', 161.0000,1,   2,  10,   1,1.01118, -35.6729,1.10000,0.90000,1.10000,0.90000
  2042,'PANHANDLE ~6',  18.0000,2,   2,  10,   1,1.01000, -33.0420,1.10000,0.90000,1.10000,0.90000
  2043,'SADLER 0    ', 161.0000,1,   2,  11,   1,1.01442, -70.1572,1.10000,0.90000,1.10000,0.90000
  2044,'WHITESBORO 0', 161.0000,1,   2,  11,   1,1.02155, -66.2474,1.10000,0.90000,1.10000,0.90000
  2045,'SHEPPARD A~1', 161.0000,1,   2,  11,   1,1.00153, -50.9203,1.10000,0.90000,1.10000,0.90000
  2046,'POTTSBORO 0 ', 161.0000,1,   2,  11,   1,1.01296, -69.5315,1.10000,0.90000,1.10000,0.90000
  2047,'BELLS 0     ', 161.0000,1,   2,  11,   1,1.01423, -65.5204,1.10000,0.90000,1.10000,0.90000
  2048,'CROSBYTON 0 ', 161.0000,1,   2,  10,   1,1.02718, -39.8299,1.10000,0.90000,1.10000,0.90000
  2049,'ELECTRA 0   ', 161.0000,1,   2,  10,   1,1.02204, -46.8574,1.10000,0.90000,1.10000,0.90000
  2050,'PATTONVILL~1', 161.0000,1,   2,  11,   1,0.99790, -64.3752,1.10000,0.90000,1.10000,0.90000
  2051,'HENRIETTA 0 ', 161.0000,1,   2,  11,   1,1.00103, -57.6890,1.10000,0.90000,1.10000,0.90000
  2052,'PANHANDLE~13', 161.0000,1,   2,  10,   1,1.00321, -40.3361,1.10000,0.90000,1.10000,0.90000
  2053,'BOWIE 0     ', 161.0000,1,   2,  11,   1,0.99707, -60.4349,1.10000,0.90000,1.10000,0.90000
  2054,'WICHITA FA~1', 500.0000,1,   2,  11,   1,1.00417, -48.9319,1.10000,0.90000,1.10000,0.90000
  2055,'WICHITA FA~2', 161.0000,1,   2,  11,   1,1.00354, -49.6700,1.10000,0.90000,1.10000,0.90000
  2056,'WICHITA FA~3',  18.0000,1,   2,  11,   1,1.00417, -48.9319,1.10000,0.90000,1.10000,0.90000
  2057,'WICHITA FA~4',  18.0000,2,   2,  11,   1,0.99000, -45.7361,1.10000,0.90000,1.10000,0.90000
  2058,'WHITE DEER 0', 161.0000,1,   2,  10,   1,1.00556, -35.1106,1.10000,0.90000,1.10000,0.90000
  2059,'WHITE DEER 1',  13.8000,2,   2,  10,   1,1.00000, -31.6396,1.10000,0.90000,1.10000,0.90000
  2060,'ROXTON 0    ', 161.0000,1,   2,  11,   1,1.00077, -63.1355,1.10000,0.90000,1.10000,0.90000
  2061,'VERNON 1 0  ', 161.0000,1,   2,  10,   1,1.02457, -43.5807,1.10000,0.90000,1.10000,0.90000
  2062,'VERNON 1 1  ',  18.0000,2,   2,  10,   1,1.02000, -41.2840,1.10000,0.90000,1.10000,0.90000
  2063,'DENISON 2 0 ', 161.0000,1,   2,  11,   1,1.01394, -68.9338,1.10000,0.90000,1.10000,0.90000
  2064,'SUMNER 0    ', 161.0000,1,   2,  11,   1,1.00561, -61.5628,1.10000,0.90000,1.10000,0.90000
  2065,'GAINESVILL~1', 161.0000,1,   2,  11,   1,1.02958, -66.6152,1.10000,0.90000,1.10000,0.90000
  2066,'ASPERMONT 0 ', 161.0000,1,   2,  10,   1,1.02381, -33.8642,1.10000,0.90000,1.10000,0.90000
  2067,'WICHITA F~11', 161.0000,1,   2,  11,   1,0.99786, -49.6268,1.10000,0.90000,1.10000,0.90000
  2068,'WINDTHORST 0', 161.0000,1,   2,  11,   1,1.00260, -47.3099,1.10000,0.90000,1.10000,0.90000
  2069,'HOWE 0      ', 161.0000,1,   2,  11,   1,1.03078, -69.6044,1.10000,0.90000,1.10000,0.90000
  2070,'ARCHER 2 0  ', 161.0000,1,   2,  11,   1,1.00445, -46.7861,1.10000,0.90000,1.10000,0.90000
  2071,'ARCHER 2 1  ',  18.0000,2,   2,  11,   1,1.00000, -43.1157,1.10000,0.90000,1.10000,0.90000
  2072,'COLLINSVIL~1', 161.0000,1,   2,  11,   1,1.02419, -67.7985,1.10000,0.90000,1.10000,0.90000
  2073,'JAYTON 0    ', 161.0000,1,   2,  10,   1,1.02513, -31.2536,1.10000,0.90000,1.10000,0.90000
  2074,'JAYTON 1    ', 115.0000,1,   2,  10,   1,1.01276, -29.1565,1.10000,0.90000,1.10000,0.90000
  2075,'JAYTON 2    ', 115.0000,1,   2,  10,   1,1.01276, -29.1565,1.10000,0.90000,1.10000,0.90000
  2076,'JAYTON 3    ',  24.0000,2,   2,  10,   1,1.04000, -30.3974,1.10000,0.90000,1.10000,0.90000
  2077,'MUENSTER 1 0', 161.0000,1,   2,  11,   1,1.02603, -62.8577,1.10000,0.90000,1.10000,0.90000
  2078,'MUENSTER 1 1',  13.8000,2,   2,  11,   1,1.02000, -59.5486,1.10000,0.90000,1.10000,0.90000
  2079,'PADUCAH 0   ', 161.0000,1,   2,  10,   1,1.02975, -41.9174,1.10000,0.90000,1.10000,0.90000
  2080,'NOCONA 0    ', 161.0000,1,   2,  11,   1,1.00549, -60.1722,1.10000,0.90000,1.10000,0.90000
  2081,'DODD CITY 0 ', 161.0000,1,   2,  11,   1,1.00703, -65.8957,1.10000,0.90000,1.10000,0.90000
  2082,'WICHITA FA~5', 161.0000,1,   2,  11,   1,1.00830, -50.4792,1.10000,0.90000,1.10000,0.90000
  2083,'WICHITA FA~6',  20.0000,2,   2,  11,   1,1.02000, -48.9027,1.10000,0.90000,1.10000,0.90000
  2084,'WICHITA FA~7',  20.0000,1,   2,  11,   1,1.00830, -50.4792,1.10000,0.90000,1.10000,0.90000
  2085,'WICHITA FA~8',  20.0000,1,   2,  11,   1,1.00830, -50.4792,1.10000,0.90000,1.10000,0.90000
  2086,'MONTAGUE 0  ', 161.0000,1,   2,  11,   1,1.00239, -61.5210,1.10000,0.90000,1.10000,0.90000
  2087,'SPUR 0      ', 161.0000,1,   2,  10,   1,1.02423, -34.1924,1.10000,0.90000,1.10000,0.90000
  2088,'ARCHER 1 0  ', 161.0000,1,   2,  11,   1,1.00345, -46.9711,1.10000,0.90000,1.10000,0.90000
  2089,'ARCHER 1 1  ',  24.0000,2,   2,  11,   1,1.00000, -43.3763,1.10000,0.90000,1.10000,0.90000
  2090,'ANNONA 0    ', 161.0000,1,   2,  11,   1,1.00508, -62.3169,1.10000,0.90000,1.10000,0.90000
  2091,'SEYMOUR 0   ', 161.0000,1,   2,  10,   1,1.02562, -40.5023,1.10000,0.90000,1.10000,0.90000
  2092,'DENISON 1 0 ', 161.0000,1,   2,  11,   1,1.01253, -67.3032,1.10000,0.90000,1.10000,0.90000
  2093,'PANHANDLE~10', 161.0000,1,   2,  10,   1,1.01592, -39.0476,1.10000,0.90000,1.10000,0.90000
  2094,'PANHANDLE~11',  13.8000,1,   2,  10,   1,1.01592, -39.0476,1.10000,0.90000,1.10000,0.90000
  2095,'PANHANDLE~12',  13.8000,1,   2,  10,   1,1.01592, -39.0476,1.10000,0.90000,1.10000,0.90000
  2096,'RALLS 1 0   ', 500.0000,1,   2,  10,   1,1.02587, -40.2133,1.10000,0.90000,1.10000,0.90000
  2097,'RALLS 1 1   ', 230.0000,1,   2,  10,   1,1.02264, -39.1226,1.10000,0.90000,1.10000,0.90000
  2098,'RALLS 1 2   ', 161.0000,1,   2,  10,   1,1.02471, -40.2289,1.10000,0.90000,1.10000,0.90000
  2099,'RALLS 1 3   ',  18.0000,2,   2,  10,   1,1.02000, -40.0676,1.10000,0.90000,1.10000,0.90000
  2100,'RALLS 1 4   ',  18.0000,2,   2,  10,   1,1.02000, -37.5980,1.10000,0.90000,1.10000,0.90000
  2101,'SHERMAN 1 0 ', 500.0000,1,   2,  11,   1,1.01665, -63.3814,1.10000,0.90000,1.10000,0.90000
  2102,'SHERMAN 1 1 ', 161.0000,1,   2,  11,   1,1.01754, -64.7798,1.10000,0.90000,1.10000,0.90000
  2103,'SHERMAN 1 2 ',  20.0000,1,   2,  11,   1,1.01665, -63.3814,1.10000,0.90000,1.10000,0.90000
  2104,'SHERMAN 1 3 ',  20.0000,1,   2,  11,   1,1.01665, -63.3814,1.10000,0.90000,1.10000,0.90000
  2105,'SHERMAN 1 4 ',  20.0000,1,   2,  11,   1,1.01665, -63.3814,1.10000,0.90000,1.10000,0.90000
  2106,'WHITEWRIGH~1', 161.0000,1,   2,  11,   1,0.99533, -66.9754,1.10000,0.90000,1.10000,0.90000
  2107,'SHERMAN 2 0 ', 161.0000,1,   2,  11,   1,1.01235, -65.5836,1.10000,0.90000,1.10000,0.90000
  2108,'ROCHESTER 0 ', 161.0000,1,   2,  10,   1,1.00762, -47.3280,1.10000,0.90000,1.10000,0.90000
  2109,'BURKBURNET~1', 161.0000,1,   2,  11,   1,1.01286, -51.7653,1.10000,0.90000,1.10000,0.90000
...
0 / END OF BUS DATA, BEGIN LOAD DATA
@!   I,'ID',STAT,AREA,ZONE,      PL,        QL,        IP,        IQ,        YP,        YQ, OWNER,SCALE,INTRPT,  DGENP,     DGENQ,DGENF,'  LOAD TYPE ',               'N A M E'
  1001,'1 ',   1,   1,   9,    20.781,     5.888,     0.000,     0.000,     0.000,     0.000,   1,    1,  0,     0.000,     0.000,    0,'            ','                                        '
  1002,'1 ',   1,   1,   9,    15.414,     4.367,     0.000,     0.000,     0.000,     0.000,   1,    1,  0,     0.000,     0.000,    0,'            ','                                        '
  1007,'1 ',   1,   1,   9,     7.008,     1.986,     0.000,     0.000,     0.000,     0.000,   1,    1,  0,     0.000,     0.000,    0,'            ','                                        '
  1012,'1 ',   1,   1,   9,     2.985,     0.846,     0.000,     0.000,     0.000,     0.000,   1,    1,  0,     0.000,     0.000,    0,'            ','                                        '
  1013,'1 ',   1,   1,   9,     0.510,     0.144,     0.000,     0.000,     0.000,     0.000,   1,    1,  0,     0.000,     0.000,    0,'            ','                                        '
  1013,'2 ',   1,   1,   9,     1.518,     0.430,     0.000,     0.000,     0.000,     0.000,   1,    1,  0,     0.000,     0.000,    0,'            ','                                        '
  1013,'3 ',   1,   1,   9,    27.198,     7.706,     0.000,     0.000,     0.000,     0.000,   1,    1,  0,     0.000,     0.000,    0,'            ','                                        '
  1014,'1 ',   1,   1,   9,     2.220,     0.629,     0.000,     0.000,     0.000,     0.000,   1,    1,  0,     0.000,     0.000,    0,'            ','                                        '
  1015,'1 ',   1,   1,   9,     7.509,     2.128,     0.000,     0.000,     0.000,     0.000,   1,    1,  0,     0.000,     0.000,    0,'            ','                                        '
  1016,'1 ',   1,   1,   9,     2.889,     0.819,     0.000,     0.000,     0.000,     0.000,   1,    1,  0,     0.000,     0.000,    0,'            ','                                        '
  1017,'1 ',   1,   1,   9,    18.345,     5.198,     0.000,     0.000,     0.000,     0.000,   1,    1,  0,     0.000,     0.000,    0,'            ','                                        '
  1018,'1 ',   1,   1,   9,     0.069,     0.020,     0.000,     0.000,     0.000,     0.000,   1,    1,  0,     0.000,     0.000,    0,'            ','                                        '
  1019,'1 ',   1,   1,   9,    61.776,    17.503,     0.000,     0.000,     0.000,     0.000,   1,    1,  0,     0.000,     0.000,    0,'            ','                                        '
  1024,'1 ',   1,   1,   9,    63.039,    17.861,     0.000,     0.000,     0.000,     0.000,   1,    1,  0,     0.000,     0.000,    0,'            ','                                        '
  1027,'1 ',   1,   1,   9,     0.603,     0.171,     0.000,     0.000,     0.000,     0.000,   1,    1,  0,     0.000,     0.000,    0,'            ','                                        '
  1027,'2 ',   1,   1,   9,   100.608,    28.506,     0.000,     0.000,     0.000,     0.000,   1,    1,  0,     0.000,     0.000,    0,'            ','                                        '
  1028,'1 ',   1,   1,   9,     1.425,     0.404,     0.000,     0.000,     0.000,     0.000,   1,    1,  0,     0.000,     0.000,    0,'            ','                                        '
  1028,'2 ',   1,   1,   9,     0.753,     0.213,     0.000,     0.000,     0.000,     0.000,   1,    1,  0,     0.000,     0.000,    0,'            ','                                        '
  1028,'3 ',   1,   1,   9,     4.899,     1.388,     0.000,     0.000,     0.000,     0.000,   1,    1,  0,     0.000,     0.000,    0,'            ','                                        '
  1028,'4 ',   1,   1,   9,     2.937,     0.832,     0.000,     0.000,     0.000,     0.000,   1,    1,  0,     0.000,     0.000,    0,'            ','                                        '
  1029,'1 ',   1,   1,   9,    83.184,    23.569,     0.000,     0.000,     0.000,     0.000,   1,    1,  0,     0.000,     0.000,    0,'            ','                                        '
  1030,'1 ',   1,   1,   9,    23.046,     6.530,     0.000,     0.000,     0.000,     0.000,   1,    1,  0,     0.000,     0.000,    0,'            ','                                        '
  1030,'2 ',   1,   1,   9,     1.581,     0.448,     0.000,     0.000,     0.000,     0.000,   1,    1,  0,     0.000,     0.000,    0,'            ','                                        '
  1031,'1 ',   1,   1,   9,     9.246,     2.620,     0.000,     0.000,     0.000,     0.000,   1,    1,  0,     0.000,     0.000,    0,'            ','                                        '
  1036,'1 ',   1,   1,   9,     1.017,     0.288,     0.000,     0.000,     0.000,     0.000,   1,    1,  0,     0.000,     0.000,    0,'            ','                                        '
  1036,'2 ',   1,   1,   9,    12.579,     3.564,     0.000,     0.000,     0.000,     0.000,   1,    1,  0,     0.000,     0.000,    0,'            ','                                        '
  1037,'1 ',   1,   1,   9,   102.237,    28.967,     0.000,     0.000,     0.000,     0.000,   1,    1,  0,     0.000,     0.000,    0,'            ','                                        '
  1040,'1 ',   1,   1,   9,    44.358,    12.568,     0.000,     0.000,     0.000,     0.000,   1,    1,  0,     0.000,     0.000,    0,'            ','                                        '
  1044,'1 ',   1,   1,   9,     4.512,     1.278,     0.000,     0.000,     0.000,     0.000,   1,    1,  0,     0.000,     0.000,    0,'            ','                                        '
  1044,'2 ',   1,   1,   9,    10.170,     2.881,     0.000,     0.000,     0.000,     0.000,   1,    1,  0,     0.000,     0.000,    0,'            ','                                        '
  1045,'1 ',   1,   1,   9,    98.562,    27.926,     0.000,     0.000,     0.000,     0.000,   1,    1,  0,     0.000,     0.000,    0,'            ','                                        '
  1046,'1 ',   1,   1,   9,     0.006,     0.002,     0.000,     0.000,     0.000,     0.000,   1,    1,  0,     0.000,     0.000,    0,'            ','                                        '
  1046,'2 ',   1,   1,   9,    11.079,     3.139,     0.000,     0.000,     0.000,     0.000,   1,    1,  0,     0.000,     0.000,    0,'            ','                                        '
  1054,'1 ',   1,   1,   9,     1.776,     0.503,     0.000,     0.000,     0.000,     0.000,   1,    1,  0,     0.000,     0.000,    0,'            ','                                        '
  1054,'2 ',   1,   1,   9,     0.519,     0.147,     0.000,     0.000,     0.000,     0.000,   1,    1,  0,     0.000,     0.000,    0,'            ','                                        '
  1054,'3 ',   1,   1,   9,    12.693,     3.596,     0.000,     0.000,     0.000,     0.000,   1,    1,  0,     0.000,     0.000,    0,'            ','                                        '
  1055,'1 ',   1,   1,   9,     3.978,     1.127,     0.000,     0.000,     0.000,     0.000,   1,    1,  0,     0.000,     0.000,    0,'            ','                                        '
  1058,'1 ',   1,   1,   9,     4.086,     1.158,     0.000,     0.000,     0.000,     0.000,   1,    1,  0,     0.000,     0.000,    0,'            ','                                        '
  1058,'2 ',   1,   1,   9,     9.369,     2.655,     0.000,     0.000,     0.000,     0.000,   1,    1,  0,     0.000,     0.000,    0,'            ','                                        '
  1064,'1 ',   1,   1,   9,     6.591,     1.867,     0.000,     0.000,     0.000,     0.000,   1,    1,  0,     0.000,     0.000,    0,'            ','                                        '
  1064,'2 ',   1,   1,   9,   117.168,    33.198,     0.000,     0.000,     0.000,     0.000,   1,    1,  0,     0.000,     0.000,    0,'            ','                                        '
  1067,'1 ',   1,   1,   9,   101.550,    28.773,     0.000,     0.000,     0.000,     0.000,   1,    1,  0,     0.000,     0.000,    0,'            ','                                        '
  1068,'1 ',   1,   1,   9,     0.690,     0.195,     0.000,     0.000,     0.000,     0.000,   1,    1,  0,     0.000,     0.000,    0,'            ','                                        '
  1068,'2 ',   1,   1,   9,    58.713,    16.635,     0.000,     0.000,     0.000,     0.000,   1,    1,  0,     0.000,     0.000,    0,'            ','                                        '
  1071,'1 ',   1,   1,   9,    91.464,    25.915,     0.000,     0.000,     0.000,     0.000,   1,    1,  0,     0.000,     0.000,    0,'            ','                                        '
  1083,'1 ',   1,   1,   9,    39.945,    11.318,     0.000,     0.000,     0.000,     0.000,   1,    1,  0,     0.000,     0.000,    0,'            ','                                        '
  1085,'1 ',   1,   1,   9,     2.922,     0.828,     0.000,     0.000,     0.000,     0.000,   1,    1,  0,     0.000,     0.000,    0,'            ','                                        '
  1085,'2 ',   1,   1,   9,    18.375,     5.206,     0.000,     0.000,     0.000,     0.000,   1,    1,  0,     0.000,     0.000,    0,'            ','                                        '
  1086,'1 ',   1,   1,   9,    39.672,    11.240,     0.000,     0.000,     0.000,     0.000,   1,    1,  0,     0.000,     0.000,    0,'            ','                                        '
  1087,'1 ',   1,   1,   9,     0.909,     0.258,     0.000,     0.000,     0.000,     0.000,   1,    1,  0,     0.000,     0.000,    0,'            ','                                        '
  1089,'1 ',   1,   1,   9,     0.831,     0.235,     0.000,     0.000,     0.000,     0.000,   1,    1,  0,     0.000,     0.000,    0,'            ','                                        '
  1089,'2 ',   1,   1,   9,    39.774,    11.269,     0.000,     0.000,     0.000,     0.000,   1,    1,  0,     0.000,     0.000,    0,'            ','                                        '
  1091,'1 ',   1,   1,   9,     4.713,     1.335,     0.000,     0.000,     0.000,     0.000,   1,    1,  0,     0.000,     0.000,    0,'            ','                                        '
  1091,'2 ',   1,   1,   9,     6.909,     1.958,     0.000,     0.000,     0.000,     0.000,   1,    1,  0,     0.000,     0.000,    0,'            ','                                        '
  2001,'1 ',   1,   2,  11,    14.307,     4.054,     0.000,     0.000,     0.000,     0.000,   1,    1,  0,     0.000,     0.000,    0,'            ','                                        '
  2001,'2 ',   1,   2,  11,    34.050,     9.647,     0.000,     0.000,     0.000,     0.000,   1,    1,  0,     0.000,     0.000,    0,'            ','                                        '
  2007,'1 ',   1,   2,  11,     9.540,     2.703,     0.000,     0.000,     0.000,     0.000,   1,    1,  0,     0.000,     0.000,    0,'            ','                                        '
  2008,'1 ',   1,   2,  10,     8.061,     2.284,     0.000,     0.000,     0.000,     0.000,   1,    1,  0,     0.000,     0.000,    0,'            ','                                        '
  2009,'1 ',   1,   2,  11,    39.135,    11.088,     0.000,     0.000,     0.000,     0.000,   1,    1,  0,     0.000,     0.000,    0,'            ','                                        '
  2010,'1 ',   1,   2,  10,     5.106,     1.447,     0.000,     0.000,     0.000,     0.000,   1,    1,  0,     0.000,     0.000,    0,'            ','                                        '
  2010,'2 ',   1,   2,  10,     9.606,     2.722,     0.000,     0.000,     0.000,     0.000,   1,    1,  0,     0.000,     0.000,    0,'            ','                                        '
  2010,'3 ',   1,   2,  10,     2.928,     0.830,     0.000,     0.000,     0.000,     0.000,   1,    1,  0,     0.000,     0.000,    0,'            ','                                        '
  2010,'4 ',   1,   2,  10,     0.192,     0.054,     0.000,     0.000,     0.000,     0.000,   1,    1,  0,     0.000,     0.000,    0,'            ','                                        '
  2010,'5 ',   1,   2,  10,    38.973,    11.042,     0.000,     0.000,     0.000,     0.000,   1,    1,  0,     0.000,     0.000,    0,'            ','                                        '
  2014,'1 ',   1,   2,  10,     3.624,     1.027,     0.000,     0.000,     0.000,     0.000,   1,    1,  0,     0.000,     0.000,    0,'            ','                                        '
  2014,'2 ',   1,   2,  10,    21.804,     6.178,     0.000,     0.000,     0.000,     0.000,   1,    1,  0,     0.000,     0.000,    0,'            ','                                        '
  2015,'1 ',   1,   2,  11,     4.686,     1.328,     0.000,     0.000,     0.000,     0.000,   1,    1,  0,     0.000,     0.000,    0,'            ','                                        '
  2016,'1 ',   1,   2,  11,    69.267,    19.626,     0.000,     0.000,     0.000,     0.000,   1,    1,  0,     0.000,     0.000,    0,'            ','                                        '
  2020,'1 ',   1,   2,  11,    47.973,    13.592,     0.000,     0.000,     0.000,     0.000,   1,    1,  0,     0.000,     0.000,    0,'            ','                                        '
  2022,'1 ',   1,   2,  11,    11.565,     3.277,     0.000,     0.000,     0.000,     0.000,   1,    1,  0,     0.000,     0.000,    0,'            ','                                        '
  2025,'1 ',   1,   2,  11,    39.618,    11.225,     0.000,     0.000,     0.000,     0.000,   1,    1,  0,     0.000,     0.000,    0,'            ','                                        '
  2026,'1 ',   1,   2,  10,     2.511,     0.711,     0.000,     0.000,     0.000,     0.000,   1,    1,  0,     0.000,     0.000,    0,'            ','                                        '
  2026,'2 ',   1,   2,  10,     0.948,     0.269,     0.000,     0.000,     0.000,     0.000,   1,    1,  0,     0.000,     0.000,    0,'            ','                                        '
  2026,'3 ',   1,   2,  10,     7.173,     2.032,     0.000,     0.000,     0.000,     0.000,   1,    1,  0,     0.000,     0.000,    0,'            ','                                        '
  2026,'4 ',   1,   2,  10,     7.938,     2.249,     0.000,     0.000,     0.000,     0.000,   1,    1,  0,     0.000,     0.000,    0,'            ','                                        '
  2027,'1 ',   1,   2,  11,     3.555,     1.007,     0.000,     0.000,     0.000,     0.000,   1,    1,  0,     0.000,     0.000,    0,'            ','                                        '
  2028,'1 ',   1,   2,  11,    14.238,     4.034,     0.000,     0.000,     0.000,     0.000,   1,    1,  0,     0.000,     0.000,    0,'            ','                                        '
  2029,'1 ',   1,   2,  10,     3.201,     0.907,     0.000,     0.000,     0.000,     0.000,   1,    1,  0,     0.000,     0.000,    0,'            ','                                        '
  2030,'1 ',   1,   2,  11,     3.912,     1.108,     0.000,     0.000,     0.000,     0.000,   1,    1,  0,     0.000,     0.000,    0,'            ','                                        '
  2030,'2 ',   1,   2,  11,    43.233,    12.249,     0.000,     0.000,     0.000,     0.000,   1,    1,  0,     0.000,     0.000,    0,'            ','                                        '
  2031,'1 ',   1,   2,  10,     0.786,     0.223,     0.000,     0.000,     0.000,     0.000,   1,    1,  0,     0.000,     0.000,    0,'            ','                                        '
  2031,'2 ',   1,   2,  10,     1.272,     0.360,     0.000,     0.000,     0.000,     0.000,   1,    1,  0,     0.000,     0.000,    0,'            ','                                        '
  2031,'3 ',   1,   2,  10,     3.708,     1.051,     0.000,     0.000,     0.000,     0.000,   1,    1,  0,     0.000,     0.000,    0,'            ','                                        '
  2032,'1 ',   1,   2,  11,     3.354,     0.950,     0.000,     0.000,     0.000,     0.000,   1,    1,  0,     0.000,     0.000,    0,'            ','                                        '
  2033,'1 ',   1,   2,  11,     1.302,     0.369,     0.000,     0.000,     0.000,     0.000,   1,    1,  0,     0.000,     0.000,    0,'            ','                                        '
  2033,'2 ',   1,   2,  11,    12.270,     3.477,     0.000,     0.000,     0.000,     0.000,   1,    1,  0,     0.000,     0.000,    0,'            ','                                        '
  2034,'1 ',   1,   2,  11,     5.340,     1.513,     0.000,     0.000,     0.000,     0.000,   1,    1,  0,     0.000,     0.000,    0,'            ','                                        '
  2035,'1 ',   1,   2,  10,     4.149,     1.176,     0.000,     0.000,     0.000,     0.000,   1,    1,  0,     0.000,     0.000,    0,'            ','                                        '
  2035,'2 ',   1,   2,  10,     0.534,     0.151,     0.000,     0.000,     0.000,     0.000,   1,    1,  0,     0.000,     0.000,    0,'            ','                                        '
  2036,'1 ',   1,   2,  11,    41.586,    11.783,     0.000,     0.000,     0.000,     0.000,   1,    1,  0,     0.000,     0.000,    0,'            ','                                        '
  2037,'1 ',   1,   2,  11,     0.690,     0.195,     0.000,     0.000,     0.000,     0.000,   1,    1,  0,     0.000,     0.000,    0,'            ','                                        '
  2037,'2 ',   1,   2,  11,     2.811,     0.796,     0.000,     0.000,     0.000,     0.000,   1,    1,  0,     0.000,     0.000,    0,'            ','                                        '
  2038,'1 ',   1,   2,  11,     2.604,     0.738,     0.000,     0.000,     0.000,     0.000,   1,    1,  0,     0.000,     0.000,    0,'            ','                                        '
  2039,'1 ',   1,   2,  11,     5.559,     1.575,     0.000,     0.000,     0.000,     0.000,   1,    1,  0,     0.000,     0.000,    0,'            ','                                        '
  2040,'1 ',   1,   2,  11,    15.903,     4.506,     0.000,     0.000,     0.000,     0.000,   1,    1,  0,     0.000,     0.000,    0,'            ','                                        '
  2043,'1 ',   1,   2,  11,     4.236,     1.200,     0.000,     0.000,     0.000,     0.000,   1,    1,  0,     0.000,     0.000,    0,'            ','                                        '
  2044,'1 ',   1,   2,  11,    27.405,     7.765,     0.000,     0.000,     0.000,     0.000,   1,    1,  0,     0.000,     0.000,    0,'            ','                                        '
  2045,'1 ',   1,   2,  11,    22.605,     6.405,     0.000,     0.000,     0.000,     0.000,   1,    1,  0,     0.000,     0.000,    0,'            ','                                        '
  2046,'1 ',   1,   2,  11,    22.134,     6.271,     0.000,     0.000,     0.000,     0.000,   1,    1,  0,     0.000,     0.000,    0,'            ','                                        '
  2047,'1 ',   1,   2,  11,     9.408,     2.666,     0.000,     0.000,     0.000,     0.000,   1,    1,  0,     0.000,     0.000,    0,'            ','                                        '
  2047,'2 ',   1,   2,  11,     5.547,     1.572,     0.000,     0.000,     0.000,     0.000,   1,    1,  0,     0.000,     0.000,    0,'            ','                                        '
  2048,'1 ',   1,   2,  10,     6.417,     1.818,     0.000,     0.000,     0.000,     0.000,   1,    1,  0,     0.000,     0.000,    0,'            ','                                        '
  2049,'1 ',   1,   2,  10,     0.486,     0.138,     0.000,     0.000,     0.000,     0.000,   1,    1,  0,     0.000,     0.000,    0,'            ','                                        '
  2049,'2 ',   1,   2,  10,     0.579,     0.164,     0.000,     0.000,     0.000,     0.000,   1,    1,  0,     0.000,     0.000,    0,'            ','                                        '
  2049,'3 ',   1,   2,  10,    10.506,     2.977,     0.000,     0.000,     0.000,     0.000,   1,    1,  0,     0.000,     0.000,    0,'            ','                                        '
  2050,'1 ',   1,   2,  11,     3.657,     1.036,     0.000,     0.000,     0.000,     0.000,   1,    1,  0,     0.000,     0.000,    0,'            ','                                        '
  2051,'1 ',   1,   2,  11,    17.850,     5.057,     0.000,     0.000,     0.000,     0.000,   1,    1,  0,     0.000,     0.000,    0,'            ','                                        '
  2052,'1 ',   1,   2,  10,     9.459,     2.680,     0.000,     0.000,     0.000,     0.000,   1,    1,  0,     0.000,     0.000,    0,'            ','                                        '
  2052,'2 ',   1,   2,  10,    15.378,     4.357,     0.000,     0.000,     0.000,     0.000,   1,    1,  0,     0.000,     0.000,    0,'            ','                                        '
  2053,'1 ',   1,   2,  11,    29.133,     8.254,     0.000,     0.000,     0.000,     0.000,   1,    1,  0,     0.000,     0.000,    0,'            ','                                        '
  2055,'1 ',   1,   2,  11,    49.620,    14.059,     0.000,     0.000,     0.000,     0.000,   1,    1,  0,     0.000,     0.000,    0,'            ','                                        '
  2060,'1 ',   1,   2,  11,     3.795,     1.075,     0.000,     0.000,     0.000,     0.000,   1,    1,  0,     0.000,     0.000,    0,'            ','                                        '
  2063,'1 ',   1,   2,  11,    65.616,    18.591,     0.000,     0.000,     0.000,     0.000,   1,    1,  0,     0.000,     0.000,    0,'            ','                                        '
  2064,'1 ',   1,   2,  11,     7.038,     1.994,     0.000,     0.000,     0.000,     0.000,   1,    1,  0,     0.000,     0.000,    0,'            ','                                        '
  2064,'2 ',   1,   2,  11,     3.009,     0.853,     0.000,     0.000,     0.000,     0.000,   1,    1,  0,     0.000,     0.000,    0,'            ','                                        '
  2065,'1 ',   1,   2,  11,    78.360,    22.202,     0.000,     0.000,     0.000,     0.000,   1,    1,  0,     0.000,     0.000,    0,'            ','                                        '
  2066,'1 ',   1,   2,  10,     4.050,     1.147,     0.000,     0.000,     0.000,     0.000,   1,    1,  0,     0.000,     0.000,    0,'            ','                                        '
  2066,'2 ',   1,   2,  10,     2.541,     0.720,     0.000,     0.000,     0.000,     0.000,   1,    1,  0,     0.000,     0.000,    0,'            ','                                        '
  2066,'3 ',   1,   2,  10,     0.522,     0.148,     0.000,     0.000,     0.000,     0.000,   1,    1,  0,     0.000,     0.000,    0,'            ','                                        '
  2067,'1 ',   1,   2,  11,    53.967,    15.291,     0.000,     0.000,     0.000,     0.000,   1,    1,  0,     0.000,     0.000,    0,'            ','                                        '
  2068,'1 ',   1,   2,  11,     5.760,     1.632,     0.000,     0.000,     0.000,     0.000,   1,    1,  0,     0.000,     0.000,    0,'            ','                                        '
  2069,'1 ',   1,   2,  11,    21.924,     6.212,     0.000,     0.000,     0.000,     0.000,   1,    1,  0,     0.000,     0.000,    0,'            ','                                        '
  2072,'1 ',   1,   2,  11,     9.705,     2.750,     0.000,     0.000,     0.000,     0.000,   1,    1,  0,     0.000,     0.000,    0,'            ','                                        '
  2079,'1 ',   1,   2,  10,     4.479,     1.269,     0.000,     0.000,     0.000,     0.000,   1,    1,  0,     0.000,     0.000,    0,'            ','                                        '
  2080,'1 ',   1,   2,  11,    16.932,     4.797,     0.000,     0.000,     0.000,     0.000,   1,    1,  0,     0.000,     0.000,    0,'            ','                                        '
  2081,'1 ',   1,   2,  11,     4.464,     1.265,     0.000,     0.000,     0.000,     0.000,   1,    1,  0,     0.000,     0.000,    0,'            ','                                        '
  2082,'1 ',   1,   2,  11,    59.031,    16.725,     0.000,     0.000,     0.000,     0.000,   1,    1,  0,     0.000,     0.000,    0,'            ','                                        '
  2086,'1 ',   1,   2,  11,     2.193,     0.621,     0.000,     0.000,     0.000,     0.000,   1,    1,  0,     0.000,     0.000,    0,'            ','                                        '
  2087,'1 ',   1,   2,  10,     7.896,     2.237,     0.000,     0.000,     0.000,     0.000,   1,    1,  0,     0.000,     0.000,    0,'            ','                                        '
  2090,'1 ',   1,   2,  11,     2.424,     0.687,     0.000,     0.000,     0.000,     0.000,   1,    1,  0,     0.000,     0.000,    0,'            ','                                        '
  2091,'1 ',   1,   2,  10,    17.046,     4.830,     0.000,     0.000,     0.000,     0.000,   1,    1,  0,     0.000,     0.000,    0,'            ','                                        '
  2092,'1 ',   1,   2,  11,    24.108,     6.831,     0.000,     0.000,     0.000,     0.000,   1,    1,  0,     0.000,     0.000,    0,'            ','                                        '
  2106,'1 ',   1,   2,  11,    14.403,     4.081,     0.000,     0.000,     0.000,     0.000,   1,    1,  0,     0.000,     0.000,    0,'            ','                                        '
  2107,'1 ',   1,   2,  11,    74.151,    21.009,     0.000,     0.000,     0.000,     0.000,   1,    1,  0,     0.000,     0.000,    0,'            ','                                        '
  2108,'1 ',   1,   2,  10,     2.145,     0.608,     0.000,     0.000,     0.000,     0.000,   1,    1,  0,     0.000,     0.000,    0,'            ','                                        '
  2109,'1 ',   1,   2,  11,    33.810,     9.579,     0.000,     0.000,     0.000,     0.000,   1,    1,  0,     0.000,     0.000,    0,'            ','                                        '
  2110,'1 ',   1,   2,  11,     8.589,     2.434,     0.000,     0.000,     0.000,     0.000,   1,    1,  0,     0.000,     0.000,    0,'            ','                                        '
  2111,'1 ',   1,   2,  11,     7.002,     1.984,     0.000,     0.000,     0.000,     0.000,   1,    1,  0,     0.000,     0.000,    0,'            ','                                        '
  2111,'2 ',   1,   2,  11,     6.951,     1.969,     0.000,     0.000,     0.000,     0.000,   1,    1,  0,     0.000,     0.000,    0,'            ','                                        '
  2112,'1 ',   1,   2,  11,     4.542,     1.287,     0.000,     0.000,     0.000,     0.000,   1,    1,  0,     0.000,     0.000,    0,'            ','                                        '
  2114,'1 ',   1,   2,  11,    70.776,    20.053,     0.000,     0.000,     0.000,     0.000,   1,    1,  0,     0.000,     0.000,    0,'            ','                                        '
  2121,'1 ',   1,   2,  11,     2.334,     0.661,     0.000,     0.000,     0.000,     0.000,   1,    1,  0,     0.000,     0.000,    0,'            ','                                        '
  2122,'1 ',   1,   2,  11,     6.723,     1.905,     0.000,     0.000,     0.000,     0.000,   1,    1,  0,     0.000,     0.000,    0,'            ','                                        '
  2124,'1 ',   1,   2,  11,    21.285,     6.031,     0.000,     0.000,     0.000,     0.000,   1,    1,  0,     0.000,     0.000,    0,'            ','                                        '
  2125,'1 ',   1,   2,  11,     4.056,     1.149,     0.000,     0.000,     0.000,     0.000,   1,    1,  0,     0.000,     0.000,    0,'            ','                                        '
  2126,'1 ',   1,   2,  11,    14.235,     4.033,     0.000,     0.000,     0.000,     0.000,   1,    1,  0,     0.000,     0.000,    0,'            ','                                        '
  2129,'1 ',   1,   2,  11,     6.633,     1.879,     0.000,     0.000,     0.000,     0.000,   1,    1,  0,     0.000,     0.000,    0,'            ','                                        '
  2132,'1 ',   1,   2,  10,    11.940,     3.383,     0.000,     0.000,     0.000,     0.000,   1,    1,  0,     0.000,     0.000,    0,'            ','                                        '
  2133,'1 ',   1,   2,  11,     5.679,     1.609,     0.000,     0.000,     0.000,     0.000,   1,    1,  0,     0.000,     0.000,    0,'            ','                                        '
  3002,'1 ',   1,   3,  28,   112.860,    31.977,     0.000,     0.000,     0.000,     0.000,   1,    1,  0,     0.000,     0.000,    0,'            ','                                        '
  3005,'1 ',   1,   3,  28,     0.792,     0.224,     0.000,     0.000,     0.000,     0.000,   1,    1,  0,     0.000,     0.000,    0,'            ','                                        '
  3005,'2 ',   1,   3,  28,     0.825,     0.234,     0.000,     0.000,     0.000,     0.000,   1,    1,  0,     0.000,     0.000,    0,'            ','                                        '
  3005,'3 ',   1,   3,  28,     5.724,     1.622,     0.000,     0.000,     0.000,     0.000,   1,    1,  0,     0.000,     0.000,    0,'            ','                                        '
  3006,'1 ',   1,   3,  27,     7.347,     2.082,     0.000,     0.000,     0.000,     0.000,   1,    1,  0,     0.000,     0.000,    0,'            ','                                        '
  3007,'1 ',   1,   3,  27,    14.964,     4.240,     0.000,     0.000,     0.000,     0.000,   1,    1,  0,     0.000,     0.000,    0,'            ','                                        '
  3008,'1 ',   1,   3,  27,    18.996,     5.382,     0.000,     0.000,     0.000,     0.000,   1,    1,  0,     0.000,     0.000,    0,'            ','                                        '
  3008,'2 ',   1,   3,  27,     0.813,     0.230,     0.000,     0.000,     0.000,     0.000,   1,    1,  0,     0.000,     0.000,    0,'            ','                                        '
  3009,'1 ',   1,   3,  28,    12.540,     3.553,     0.000,     0.000,     0.000,     0.000,   1,    1,  0,     0.000,     0.000,    0,'            ','                                        '
  3010,'1 ',   1,   3,  28,     4.671,     1.323,     0.000,     0.000,     0.000,     0.000,   1,    1,  0,     0.000,     0.000,    0,'            ','                                        '
  3011,'1 ',   1,   3,  28,    18.981,     5.378,     0.000,     0.000,     0.000,     0.000,   1,    1,  0,     0.000,     0.000,    0,'            ','                                        '
  3011,'2 ',   1,   3,  28,     8.157,     2.311,     0.000,     0.000,     0.000,     0.000,   1,    1,  0,     0.000,     0.000,    0,'            ','                                        '
  3012,'1 ',   1,   3,  28,     0.564,     0.160,     0.000,     0.000,     0.000,     0.000,   1,    1,  0,     0.000,     0.000,    0,'            ','                                        '
  3013,'1 ',   1,   3,  27,    64.557,    18.291,     0.000,     0.000,     0.000,     0.000,   1,    1,  0,     0.000,     0.000,    0,'            ','                                        '
  3014,'1 ',   1,   3,  28,    22.002,     6.234,     0.000,     0.000,     0.000,     0.000,   1,    1,  0,     0.000,     0.000,    0,'            ','                                        '
  3015,'1 ',   1,   3,  27,     5.364,     1.520,     0.000,     0.000,     0.000,     0.000,   1,    1,  0,     0.000,     0.000,    0,'            ','                                        '
  3021,'1 ',   1,   3,  27,     0.525,     0.149,     0.000,     0.000,     0.000,     0.000,   1,    1,  0,     0.000,     0.000,    0,'            ','                                        '
  3021,'2 ',   1,   3,  27,     1.416,     0.401,     0.000,     0.000,     0.000,     0.000,   1,    1,  0,     0.000,     0.000,    0,'            ','                                        '
  3022,'1 ',   1,   3,  27,    24.591,     6.967,     0.000,     0.000,     0.000,     0.000,   1,    1,  0,     0.000,     0.000,    0,'            ','                                        '
  3023,'1 ',   1,   3,  27,    10.407,     2.949,     0.000,     0.000,     0.000,     0.000,   1,    1,  0,     0.000,     0.000,    0,'            ','                                        '
  3024,'1 ',   1,   3,  28,    10.131,     2.870,     0.000,     0.000,     0.000,     0.000,   1,    1,  0,     0.000,     0.000,    0,'            ','                                        '
  3025,'1 ',   1,   3,  28,    13.674,     3.874,     0.000,     0.000,     0.000,     0.000,   1,    1,  0,     0.000,     0.000,    0,'            ','                                        '
  3029,'1 ',   1,   3,  28,     4.866,     1.379,     0.000,     0.000,     0.000,     0.000,   1,    1,  0,     0.000,     0.000,    0,'            ','                                        '
  3030,'1 ',   1,   3,  27,   129.720,    36.754,     0.000,     0.000,     0.000,     0.000,   1,    1,  0,     0.000,     0.000,    0,'            ','                                        '
  3031,'1 ',   1,   3,  27,    14.733,     4.174,     0.000,     0.000,     0.000,     0.000,   1,    1,  0,     0.000,     0.000,    0,'            ','                                        '
  3032,'1 ',   1,   3,  27,    72.864,    20.645,     0.000,     0.000,     0.000,     0.000,   1,    1,  0,     0.000,     0.000,    0,'            ','                                        '
  3035,'1 ',   1,   3,  28,     3.465,     0.982,     0.000,     0.000,     0.000,     0.000,   1,    1,  0,     0.000,     0.000,    0,'            ','                                        '
  3036,'1 ',   1,   3,  28,     1.299,     0.368,     0.000,     0.000,     0.000,     0.000,   1,    1,  0,     0.000,     0.000,    0,'            ','                                        '
  3036,'2 ',   1,   3,  28,     4.503,     1.276,     0.000,     0.000,     0.000,     0.000,   1,    1,  0,     0.000,     0.000,    0,'            ','                                        '
  3040,'1 ',   1,   3,  27,    14.607,     4.139,     0.000,     0.000,     0.000,     0.000,   1,    1,  0,     0.000,     0.000,    0,'            ','                                        '
  3042,'1 ',   1,   3,  27,     5.016,     1.421,     0.000,     0.000,     0.000,     0.000,   1,    1,  0,     0.000,     0.000,    0,'            ','                                        '
  3042,'2 ',   1,   3,  27,     3.738,     1.059,     0.000,     0.000,     0.000,     0.000,   1,    1,  0,     0.000,     0.000,    0,'            ','                                        '
  3049,'1 ',   1,   3,  27,    10.584,     2.999,     0.000,     0.000,     0.000,     0.000,   1,    1,  0,     0.000,     0.000,    0,'            ','                                        '
  3051,'1 ',   1,   3,  28,     0.843,     0.239,     0.000,     0.000,     0.000,     0.000,   1,    1,  0,     0.000,     0.000,    0,'            ','                                        '
  3051,'2 ',   1,   3,  28,   144.447,    40.927,     0.000,     0.000,     0.000,     0.000,   1,    1,  0,     0.000,     0.000,    0,'            ','                                        '
  3052,'1 ',   1,   3,  28,     8.076,     2.288,     0.000,     0.000,     0.000,     0.000,   1,    1,  0,     0.000,     0.000,    0,'            ','                                        '
  3066,'1 ',   1,   3,  28,    22.035,     6.243,     0.000,     0.000,     0.000,     0.000,   1,    1,  0,     0.000,     0.000,    0,'            ','                                        '
  3069,'1 ',   1,   3,  27,     3.813,     1.080,     0.000,     0.000,     0.000,     0.000,   1,    1,  0,     0.000,     0.000,    0,'            ','                                        '
  3072,'1 ',   1,   3,  27,     5.985,     1.696,     0.000,     0.000,     0.000,     0.000,   1,    1,  0,     0.000,     0.000,    0,'            ','                                        '
  3075,'1 ',   1,   3,  28,    12.183,     3.452,     0.000,     0.000,     0.000,     0.000,   1,    1,  0,     0.000,     0.000,    0,'            ','                                        '
  3076,'1 ',   1,   3,  28,    10.794,     3.058,     0.000,     0.000,     0.000,     0.000,   1,    1,  0,     0.000,     0.000,    0,'            ','                                        '
  3077,'1 ',   1,   3,  27,    68.655,    19.452,     0.000,     0.000,     0.000,     0.000,   1,    1,  0,     0.000,     0.000,    0,'            ','                                        '
  3093,'1 ',   1,   3,  28,     5.046,     1.430,     0.000,     0.000,     0.000,     0.000,   1,    1,  0,     0.000,     0.000,    0,'            ','                                        '
  3099,'1 ',   1,   3,  27,    12.078,     3.422,     0.000,     0.000,     0.000,     0.000,   1,    1,  0,     0.000,     0.000,    0,'            ','                                        '
  3100,'1 ',   1,   3,  27,     8.526,     2.416,     0.000,     0.000,     0.000,     0.000,   1,    1,  0,     0.000,     0.000,    0,'            ','                                        '
...